# generated using pymatgen
data_WSe2
_symmetry_space_group_name_H-M   'P 1'
_cell_length_a   3.32706951
_cell_length_b   3.32706951
_cell_length_c   15.06895100
_cell_angle_alpha   90.00000000
_cell_angle_beta   90.00000000
_cell_angle_gamma   120.00000000
_symmetry_Int_Tables_number   1
_chemical_formula_structural   WSe2
_chemical_formula_sum   'W2 Se4'
_cell_volume   144.45660374
_cell_formula_units_Z   2
loop_
 _symmetry_equiv_pos_site_id
 _symmetry_equiv_pos_as_xyz
  1  'x, y, z'
loop_
 _atom_site_type_symbol
 _atom_site_label
 _atom_site_symmetry_multiplicity
 _atom_site_fract_x
 _atom_site_fract_y
 _atom_site_fract_z
 _atom_site_occupancy
  W  W0  1  0.33333333  0.66666667  0.25000000  1
  W  W1  1  0.66666667  0.33333333  0.75000000  1
  Se  Se2  1  0.66666667  0.33333333  0.36156900  1
  Se  Se3  1  0.33333333  0.66666667  0.86156900  1
  Se  Se4  1  0.66666667  0.33333333  0.13843100  1
  Se  Se5  1  0.33333333  0.66666667  0.63843100  1
