# generated using pymatgen
data_Zn0.75Cu0.25S1
_symmetry_space_group_name_H-M   'P 1'
_cell_length_a   3.85392288
_cell_length_b   3.85392288
_cell_length_c   3.85392288
_cell_angle_alpha   60.00000000
_cell_angle_beta   60.00000000
_cell_angle_gamma   60.00000000
_symmetry_Int_Tables_number   1
_chemical_formula_structural   Zn0.75Cu0.25S1
_chemical_formula_sum   'Zn0.75 Cu0.25 S1'
_cell_volume   40.47567130
_cell_formula_units_Z   1
loop_
 _symmetry_equiv_pos_site_id
 _symmetry_equiv_pos_as_xyz
  1  'x, y, z'
loop_
 _atom_type_symbol
 _atom_type_oxidation_number
  Zn2+  2.0
  Cu+  1.0
  S2-  -2.0
loop_
 _atom_site_type_symbol
 _atom_site_label
 _atom_site_symmetry_multiplicity
 _atom_site_fract_x
 _atom_site_fract_y
 _atom_site_fract_z
 _atom_site_occupancy
  Zn2+  Zn0  1  0.00000000  0.00000000  0.00000000  0.75
  Cu+  Cu1  1  0.00000000  0.00000000  0.00000000  0.25
  S2-  S2  1  0.25000000  0.25000000  0.25000000  1
